# File generated by Flopy version 3.9.5 on 03/16/2026 at 18:18:28.
BEGIN options
  SAVE_FLOWS
  NEWTON
END options

BEGIN packages
  DIS6  ss_recharge.dis  dis
  IC6  ss_recharge.ic  ic
  NPF6  ss_recharge.npf  npf
  DRN6  ss_recharge.drn  drn
  RCH6  ss_recharge.rcha  rcha
  OC6  ss_recharge.oc  oc
END packages

