# File generated by Flopy version 3.9.5 on 03/16/2026 at 18:18:28.
BEGIN options
  PRINT_OPTION  summary
  COMPLEXITY  complex
END options

BEGIN nonlinear
  OUTER_DVCLOSE       0.01000000
  OUTER_MAXIMUM  1000
END nonlinear

BEGIN linear
  INNER_MAXIMUM  300
  INNER_DVCLOSE       0.00500000
  LINEAR_ACCELERATION  bicgstab
END linear

