# File generated by Flopy version 3.9.5 on 03/16/2026 at 18:18:30.
BEGIN options
  BUDGET  FILEOUT  ss_recharge.cbc
  HEAD  FILEOUT  ss_recharge.hds
END options

BEGIN period  1
  SAVE  HEAD  ALL
  SAVE  BUDGET  ALL
END period  1

