# File generated by Flopy version 3.9.5 on 03/16/2026 at 18:18:30.
BEGIN options
  READASARRAYS
END options

BEGIN period  1
  recharge
    CONSTANT  1.23033993E-08
END period  1

