# File generated by Flopy version 3.9.5 on 03/16/2026 at 18:20:31.
BEGIN options
END options

BEGIN griddata
  strt  LAYERED
    INTERNAL  FACTOR  1.0
         100.00000000     100.00000000     100.00000000     100.00000000     100.00000000     100.00000000     100.00000000     100.00000000     100.00000000     100.00000000     100.00000000     100.00000000     100.00000000     100.00000000     100.00000000     100.00000000     100.00000000     100.00000000     100.00000000     100.00000000     100.00000000     100.00000000     100.00000000     100.00000000     100.00000000     100.00000000     100.00000000     100.00000000     100.00000000     100.00000000     100.00000000     100.00000000     100.00000000     100.00000000     100.00000000     100.00000000     100.00000000     100.00000000     100.00000000     100.00000000     100.00000000     100.00000000     100.00000000     100.00000000     100.00000000     100.00000000     100.00000000     100.00000000     100.00000000     100.00000000     100.00000000     100.00000000     100.00000000     100.00000000     100.00000000     100.00000000     100.00000000     100.00000000     100.00000000     100.00000000     100.00000000     100.00000000     100.00000000     100.00000000     100.00000000     100.00000000     100.00000000     100.00000000     100.00000000     100.00000000     100.00000000     100.00000000     100.00000000     100.00000000     100.00000000     100.00000000     100.00000000     100.00000000     100.00000000     100.00000000     100.00000000     100.00000000     100.00000000     100.00000000     100.00000000     100.00000000     100.00000000     100.00000000     100.00000000     100.00000000     100.00000000     100.00000000     100.00000000     100.00000000     100.00000000     100.00000000     100.00000000     100.00000000     100.00000000     100.00000000     100.00000000     100.00000000     100.00000000     100.00000000     100.00000000     100.00000000     100.00000000     100.00000000     100.00000000     100.00000000     100.00000000     100.00000000     100.00000000     100.00000000     100.00000000     100.00000000     100.00000000     100.00000000     100.00000000     100.00000000     100.00000000     100.00000000     100.00000000     100.00000000     100.00000000     100.00000000     100.00000000     100.00000000     100.00000000     100.00000000     100.00000000     100.00000000     100.00000000     100.00000000     100.00000000     100.00000000     100.00000000     100.00000000     100.00000000     100.00000000     100.00000000     100.00000000     100.00000000     100.00000000     100.00000000     100.00000000     100.00000000     100.00000000     100.00000000     100.00000000     100.00000000     100.00000000     100.00000000     100.00000000     100.00000000     100.00000000     100.00000000     100.00000000     100.00000000     100.00000000     100.00000000     100.00000000     100.00000000     100.00000000     100.00000000     100.00000000     100.00000000     100.00000000     100.00000000     100.00000000     100.00000000     100.00000000     100.00000000     100.00000000     100.00000000     100.00000000     100.00000000     100.00000000     100.00000000     100.00000000     100.00000000     100.00000000     100.00000000     100.00000000     100.00000000     100.00000000     100.00000000     100.00000000     100.00000000     100.00000000     100.00000000     100.00000000     100.00000000     100.00000000     100.00000000     100.00000000     100.00000000     100.00000000     100.00000000     100.00000000     100.00000000     100.00000000     100.00000000     100.00000000     100.00000000     100.00000000     100.00000000     100.00000000     100.00000000     100.00000000     100.00000000     100.00000000     100.00000000     100.00000000     100.00000000     100.00000000     100.00000000     100.00000000     100.00000000     100.00000000     100.00000000     100.00000000     100.00000000     100.00000000     100.00000000     100.00000000     100.00000000     100.00000000     100.00000000     100.00000000     100.00000000     100.00000000     100.00000000     100.00000000     100.00000000     100.00000000     100.00000000     100.00000000     100.00000000     100.00000000     100.00000000     100.00000000     100.00000000     100.00000000     100.00000000     100.00000000     100.00000000     100.00000000     100.00000000     100.00000000     100.00000000     100.00000000     100.00000000     100.00000000     100.00000000     100.00000000     100.00000000     100.00000000     100.00000000     100.00000000     100.00000000     100.00000000     100.00000000     100.00000000     100.00000000     100.00000000     100.00000000     100.00000000     100.00000000     100.00000000     100.00000000     100.00000000     100.00000000     100.00000000     100.00000000     100.00000000     100.00000000     100.00000000     100.00000000     100.00000000     100.00000000     100.00000000     100.00000000     100.00000000     100.00000000     100.00000000     100.00000000     100.00000000     100.00000000     100.00000000     100.00000000     100.00000000     100.00000000     100.00000000     100.00000000     100.00000000     100.00000000     100.00000000     100.00000000     100.00000000     100.00000000     100.00000000     100.00000000     100.00000000     100.00000000     100.00000000     100.00000000     100.00000000     100.00000000     100.00000000     100.00000000
         100.00000000     100.00000000     100.00000000     100.00000000     100.00000000     100.00000000     100.00000000     100.00000000     100.00000000     100.00000000     100.00000000     100.00000000     100.00000000     100.00000000     100.00000000     100.00000000     100.00000000     100.00000000     100.00000000     100.00000000     100.00000000     100.00000000     100.00000000     100.00000000     100.00000000     100.00000000     100.00000000     100.00000000     100.00000000     100.00000000     100.00000000     100.00000000     100.00000000     100.00000000     100.00000000     100.00000000     100.00000000     100.00000000     100.00000000     100.00000000     100.00000000     100.00000000     100.00000000     100.00000000     100.00000000     100.00000000     100.00000000     100.00000000     100.00000000     100.00000000     100.00000000     100.00000000     100.00000000     100.00000000     100.00000000     100.00000000     100.00000000     100.00000000     100.00000000     100.00000000     100.00000000     100.00000000     100.00000000     100.00000000     100.00000000     100.00000000     100.00000000     100.00000000     100.00000000     100.00000000     100.00000000     100.00000000     100.00000000     100.00000000     100.00000000     100.00000000     100.00000000     100.00000000     100.00000000     100.00000000     100.00000000     100.00000000     100.00000000     100.00000000     100.00000000     100.00000000     100.00000000     100.00000000     100.00000000     100.00000000     100.00000000     100.00000000     100.00000000     100.00000000     100.00000000     100.00000000     100.00000000     100.00000000     100.00000000     100.00000000     100.00000000     100.00000000     100.00000000     100.00000000     100.00000000     100.00000000     100.00000000     100.00000000     100.00000000     100.00000000     100.00000000     100.00000000     100.00000000     100.00000000     100.00000000     100.00000000     100.00000000     100.00000000     100.00000000     100.00000000     100.00000000     100.00000000     100.00000000     100.00000000     100.00000000     100.00000000     100.00000000     100.00000000     100.00000000     100.00000000     100.00000000     100.00000000     100.00000000     100.00000000     100.00000000     100.00000000     100.00000000     100.00000000     100.00000000     100.00000000     100.00000000     100.00000000     100.00000000     100.00000000     100.00000000     100.00000000     100.00000000     100.00000000     100.00000000     100.00000000     100.00000000     100.00000000     100.00000000     100.00000000     100.00000000     100.00000000     100.00000000     100.00000000     100.00000000     100.00000000     100.00000000     100.00000000     100.00000000     100.00000000     100.00000000     100.00000000     100.00000000     100.00000000     100.00000000     100.00000000     100.00000000     100.00000000     100.00000000     100.00000000     100.00000000     100.00000000     100.00000000     100.00000000     100.00000000     100.00000000     100.00000000     100.00000000     100.00000000     100.00000000     100.00000000     100.00000000     100.00000000     100.00000000     100.00000000     100.00000000     100.00000000     100.00000000     100.00000000     100.00000000     100.00000000     100.00000000     100.00000000     100.00000000     100.00000000     100.00000000     100.00000000     100.00000000     100.00000000     100.00000000     100.00000000     100.00000000     100.00000000     100.00000000     100.00000000     100.00000000     100.00000000     100.00000000     100.00000000     100.00000000     100.00000000     100.00000000     100.00000000     100.00000000     100.00000000     100.00000000     100.00000000     100.00000000     100.00000000     100.00000000     100.00000000     100.00000000     100.00000000     100.00000000     100.00000000     100.00000000     100.00000000     100.00000000     100.00000000     100.00000000     100.00000000     100.00000000     100.00000000     100.00000000     100.00000000     100.00000000     100.00000000     100.00000000     100.00000000     100.00000000     100.00000000     100.00000000     100.00000000     100.00000000     100.00000000     100.00000000     100.00000000     100.00000000     100.00000000     100.00000000     100.00000000     100.00000000     100.00000000     100.00000000     100.00000000     100.00000000     100.00000000     100.00000000     100.00000000     100.00000000     100.00000000     100.00000000     100.00000000     100.00000000     100.00000000     100.00000000     100.00000000     100.00000000     100.00000000     100.00000000     100.00000000     100.00000000     100.00000000     100.00000000     100.00000000     100.00000000     100.00000000     100.00000000     100.00000000     100.00000000     100.00000000     100.00000000     100.00000000     100.00000000     100.00000000     100.00000000     100.00000000     100.00000000     100.00000000     100.00000000     100.00000000     100.00000000     100.00000000     100.00000000     100.00000000     100.00000000     100.00000000     100.00000000     100.00000000     100.00000000     100.00000000     100.00000000     100.00000000     100.00000000     100.00000000     100.00000000     100.00000000
         100.00000000     100.00000000     100.00000000     100.00000000     100.00000000     100.00000000     100.00000000     100.00000000     100.00000000     100.00000000     100.00000000     100.00000000     100.00000000     100.00000000     100.00000000     100.00000000     100.00000000     100.00000000     100.00000000     100.00000000     100.00000000     100.00000000     100.00000000     100.00000000     100.00000000     100.00000000     100.00000000     100.00000000     100.00000000     100.00000000     100.00000000     100.00000000     100.00000000     100.00000000     100.00000000     100.00000000     100.00000000     100.00000000     100.00000000     100.00000000     100.00000000     100.00000000     100.00000000     100.00000000     100.00000000     100.00000000     100.00000000     100.00000000     100.00000000     100.00000000     100.00000000     100.00000000     100.00000000     100.00000000     100.00000000     100.00000000     100.00000000     100.00000000     100.00000000     100.00000000     100.00000000     100.00000000     100.00000000     100.00000000     100.00000000     100.00000000     100.00000000     100.00000000     100.00000000     100.00000000     100.00000000     100.00000000     100.00000000     100.00000000     100.00000000     100.00000000     100.00000000     100.00000000     100.00000000     100.00000000     100.00000000     100.00000000     100.00000000     100.00000000     100.00000000     100.00000000     100.00000000     100.00000000     100.00000000     100.00000000     100.00000000     100.00000000     100.00000000     100.00000000     100.00000000     100.00000000     100.00000000     100.00000000     100.00000000     100.00000000     100.00000000     100.00000000     100.00000000     100.00000000     100.00000000     100.00000000     100.00000000     100.00000000     100.00000000     100.00000000     100.00000000     100.00000000     100.00000000     100.00000000     100.00000000     100.00000000     100.00000000     100.00000000     100.00000000     100.00000000     100.00000000     100.00000000     100.00000000     100.00000000     100.00000000     100.00000000     100.00000000     100.00000000     100.00000000     100.00000000     100.00000000     100.00000000     100.00000000     100.00000000     100.00000000     100.00000000     100.00000000     100.00000000     100.00000000     100.00000000     100.00000000     100.00000000     100.00000000     100.00000000     100.00000000     100.00000000     100.00000000     100.00000000     100.00000000     100.00000000     100.00000000     100.00000000     100.00000000     100.00000000     100.00000000     100.00000000     100.00000000     100.00000000     100.00000000     100.00000000     100.00000000     100.00000000     100.00000000     100.00000000     100.00000000     100.00000000     100.00000000     100.00000000     100.00000000     100.00000000     100.00000000     100.00000000     100.00000000     100.00000000     100.00000000     100.00000000     100.00000000     100.00000000     100.00000000     100.00000000     100.00000000     100.00000000     100.00000000     100.00000000     100.00000000     100.00000000     100.00000000     100.00000000     100.00000000     100.00000000     100.00000000     100.00000000     100.00000000     100.00000000     100.00000000     100.00000000     100.00000000     100.00000000     100.00000000     100.00000000     100.00000000     100.00000000     100.00000000     100.00000000     100.00000000     100.00000000     100.00000000     100.00000000     100.00000000     100.00000000     100.00000000     100.00000000     100.00000000     100.00000000     100.00000000     100.00000000     100.00000000     100.00000000     100.00000000     100.00000000     100.00000000     100.00000000     100.00000000     100.00000000     100.00000000     100.00000000     100.00000000     100.00000000     100.00000000     100.00000000     100.00000000     100.00000000     100.00000000     100.00000000     100.00000000     100.00000000     100.00000000     100.00000000     100.00000000     100.00000000     100.00000000     100.00000000     100.00000000     100.00000000     100.00000000     100.00000000     100.00000000     100.00000000     100.00000000     100.00000000     100.00000000     100.00000000     100.00000000     100.00000000     100.00000000     100.00000000     100.00000000     100.00000000     100.00000000     100.00000000     100.00000000     100.00000000     100.00000000     100.00000000     100.00000000     100.00000000     100.00000000     100.00000000     100.00000000     100.00000000     100.00000000     100.00000000     100.00000000     100.00000000     100.00000000     100.00000000     100.00000000     100.00000000     100.00000000     100.00000000     100.00000000     100.00000000     100.00000000     100.00000000     100.00000000     100.00000000     100.00000000     100.00000000     100.00000000     100.00000000     100.00000000     100.00000000     100.00000000     100.00000000     100.00000000     100.00000000     100.00000000     100.00000000     100.00000000     100.00000000     100.00000000     100.00000000     100.00000000     100.00000000     100.00000000     100.00000000     100.00000000     100.00000000     100.00000000     100.00000000     100.00000000
         100.00000000     100.00000000     100.00000000     100.00000000     100.00000000     100.00000000     100.00000000     100.00000000     100.00000000     100.00000000     100.00000000     100.00000000     100.00000000     100.00000000     100.00000000     100.00000000     100.00000000     100.00000000     100.00000000     100.00000000     100.00000000     100.00000000     100.00000000     100.00000000     100.00000000     100.00000000     100.00000000     100.00000000     100.00000000     100.00000000     100.00000000     100.00000000     100.00000000     100.00000000     100.00000000     100.00000000     100.00000000     100.00000000     100.00000000     100.00000000     100.00000000     100.00000000     100.00000000     100.00000000     100.00000000     100.00000000     100.00000000     100.00000000     100.00000000     100.00000000     100.00000000     100.00000000     100.00000000     100.00000000     100.00000000     100.00000000     100.00000000     100.00000000     100.00000000     100.00000000     100.00000000     100.00000000     100.00000000     100.00000000     100.00000000     100.00000000     100.00000000     100.00000000     100.00000000     100.00000000     100.00000000     100.00000000     100.00000000     100.00000000     100.00000000     100.00000000     100.00000000     100.00000000     100.00000000     100.00000000     100.00000000     100.00000000     100.00000000     100.00000000     100.00000000     100.00000000     100.00000000     100.00000000     100.00000000     100.00000000     100.00000000     100.00000000     100.00000000     100.00000000     100.00000000     100.00000000     100.00000000     100.00000000     100.00000000     100.00000000     100.00000000     100.00000000     100.00000000     100.00000000     100.00000000     100.00000000     100.00000000     100.00000000     100.00000000     100.00000000     100.00000000     100.00000000     100.00000000     100.00000000     100.00000000     100.00000000     100.00000000     100.00000000     100.00000000     100.00000000     100.00000000     100.00000000     100.00000000     100.00000000     100.00000000     100.00000000     100.00000000     100.00000000     100.00000000     100.00000000     100.00000000     100.00000000     100.00000000     100.00000000     100.00000000     100.00000000     100.00000000     100.00000000     100.00000000     100.00000000     100.00000000     100.00000000     100.00000000     100.00000000     100.00000000     100.00000000     100.00000000     100.00000000     100.00000000     100.00000000     100.00000000     100.00000000     100.00000000     100.00000000     100.00000000     100.00000000     100.00000000     100.00000000     100.00000000     100.00000000     100.00000000     100.00000000     100.00000000     100.00000000     100.00000000     100.00000000     100.00000000     100.00000000     100.00000000     100.00000000     100.00000000     100.00000000     100.00000000     100.00000000     100.00000000     100.00000000     100.00000000     100.00000000     100.00000000     100.00000000     100.00000000     100.00000000     100.00000000     100.00000000     100.00000000     100.00000000     100.00000000     100.00000000     100.00000000     100.00000000     100.00000000     100.00000000     100.00000000     100.00000000     100.00000000     100.00000000     100.00000000     100.00000000     100.00000000     100.00000000     100.00000000     100.00000000     100.00000000     100.00000000     100.00000000     100.00000000     100.00000000     100.00000000     100.00000000     100.00000000     100.00000000     100.00000000     100.00000000     100.00000000     100.00000000     100.00000000     100.00000000     100.00000000     100.00000000     100.00000000     100.00000000     100.00000000     100.00000000     100.00000000     100.00000000     100.00000000     100.00000000     100.00000000     100.00000000     100.00000000     100.00000000     100.00000000     100.00000000     100.00000000     100.00000000     100.00000000     100.00000000     100.00000000     100.00000000     100.00000000     100.00000000     100.00000000     100.00000000     100.00000000     100.00000000     100.00000000     100.00000000     100.00000000     100.00000000     100.00000000     100.00000000     100.00000000     100.00000000     100.00000000     100.00000000     100.00000000     100.00000000     100.00000000     100.00000000     100.00000000     100.00000000     100.00000000     100.00000000     100.00000000     100.00000000     100.00000000     100.00000000     100.00000000     100.00000000     100.00000000     100.00000000     100.00000000     100.00000000     100.00000000     100.00000000     100.00000000     100.00000000     100.00000000     100.00000000     100.00000000     100.00000000     100.00000000     100.00000000     100.00000000     100.00000000     100.00000000     100.00000000     100.00000000     100.00000000     100.00000000     100.00000000     100.00000000     100.00000000     100.00000000     100.00000000     100.00000000     100.00000000     100.00000000     100.00000000     100.00000000     100.00000000     100.00000000     100.00000000     100.00000000     100.00000000     100.00000000     100.00000000     100.00000000     100.00000000     100.00000000     100.00000000
         100.00000000     100.00000000     100.00000000     100.00000000     100.00000000     100.00000000     100.00000000     100.00000000     100.00000000     100.00000000     100.00000000     100.00000000     100.00000000     100.00000000     100.00000000     100.00000000     100.00000000     100.00000000     100.00000000     100.00000000     100.00000000     100.00000000     100.00000000     100.00000000     100.00000000     100.00000000     100.00000000     100.00000000     100.00000000     100.00000000     100.00000000     100.00000000     100.00000000     100.00000000     100.00000000     100.00000000     100.00000000     100.00000000     100.00000000     100.00000000     100.00000000     100.00000000     100.00000000     100.00000000     100.00000000     100.00000000     100.00000000     100.00000000     100.00000000     100.00000000     100.00000000     100.00000000     100.00000000     100.00000000     100.00000000     100.00000000     100.00000000     100.00000000     100.00000000     100.00000000     100.00000000     100.00000000     100.00000000     100.00000000     100.00000000     100.00000000     100.00000000     100.00000000     100.00000000     100.00000000     100.00000000     100.00000000     100.00000000     100.00000000     100.00000000     100.00000000     100.00000000     100.00000000     100.00000000     100.00000000     100.00000000     100.00000000     100.00000000     100.00000000     100.00000000     100.00000000     100.00000000     100.00000000     100.00000000     100.00000000     100.00000000     100.00000000     100.00000000     100.00000000     100.00000000     100.00000000     100.00000000     100.00000000     100.00000000     100.00000000     100.00000000     100.00000000     100.00000000     100.00000000     100.00000000     100.00000000     100.00000000     100.00000000     100.00000000     100.00000000     100.00000000     100.00000000     100.00000000     100.00000000     100.00000000     100.00000000     100.00000000     100.00000000     100.00000000     100.00000000     100.00000000     100.00000000     100.00000000     100.00000000     100.00000000     100.00000000     100.00000000     100.00000000     100.00000000     100.00000000     100.00000000     100.00000000     100.00000000     100.00000000     100.00000000     100.00000000     100.00000000     100.00000000     100.00000000     100.00000000     100.00000000     100.00000000     100.00000000     100.00000000     100.00000000     100.00000000     100.00000000     100.00000000     100.00000000     100.00000000     100.00000000     100.00000000     100.00000000     100.00000000     100.00000000     100.00000000     100.00000000     100.00000000     100.00000000     100.00000000     100.00000000     100.00000000     100.00000000     100.00000000     100.00000000     100.00000000     100.00000000     100.00000000     100.00000000     100.00000000     100.00000000     100.00000000     100.00000000     100.00000000     100.00000000     100.00000000     100.00000000     100.00000000     100.00000000     100.00000000     100.00000000     100.00000000     100.00000000     100.00000000     100.00000000     100.00000000     100.00000000     100.00000000     100.00000000     100.00000000     100.00000000     100.00000000     100.00000000     100.00000000     100.00000000     100.00000000     100.00000000     100.00000000     100.00000000     100.00000000     100.00000000     100.00000000     100.00000000     100.00000000     100.00000000     100.00000000     100.00000000     100.00000000     100.00000000     100.00000000     100.00000000     100.00000000     100.00000000     100.00000000     100.00000000     100.00000000     100.00000000     100.00000000     100.00000000     100.00000000     100.00000000     100.00000000     100.00000000     100.00000000     100.00000000     100.00000000     100.00000000     100.00000000     100.00000000     100.00000000     100.00000000     100.00000000     100.00000000     100.00000000     100.00000000     100.00000000     100.00000000     100.00000000     100.00000000     100.00000000     100.00000000     100.00000000     100.00000000     100.00000000     100.00000000     100.00000000     100.00000000     100.00000000     100.00000000     100.00000000     100.00000000     100.00000000     100.00000000     100.00000000     100.00000000     100.00000000     100.00000000     100.00000000     100.00000000     100.00000000     100.00000000     100.00000000     100.00000000     100.00000000     100.00000000     100.00000000     100.00000000     100.00000000     100.00000000     100.00000000     100.00000000     100.00000000     100.00000000     100.00000000     100.00000000     100.00000000     100.00000000     100.00000000     100.00000000     100.00000000     100.00000000     100.00000000     100.00000000     100.00000000     100.00000000     100.00000000     100.00000000     100.00000000     100.00000000     100.00000000     100.00000000     100.00000000     100.00000000     100.00000000     100.00000000     100.00000000     100.00000000     100.00000000     100.00000000     100.00000000     100.00000000     100.00000000     100.00000000     100.00000000     100.00000000     100.00000000     100.00000000     100.00000000     100.00000000     100.00000000     100.00000000