# File generated by Flopy version 3.9.5 on 03/16/2026 at 18:20:32.
BEGIN options
  READASARRAYS
END options

BEGIN period  1
  recharge
    CONSTANT  2.46702182E-09
END period  1

