# File generated by Flopy version 3.9.5 on 03/16/2026 at 18:20:32.
BEGIN options
  SAVE_FLOWS
END options

BEGIN dimensions
  MAXBOUND  44003
END dimensions

BEGIN period  1
  1 40 241 1.46863358E+02 8.32142695E-03
  1 40 242 1.47650894E+02 8.32142695E-03
  1 41 241 1.47749405E+02 8.32142695E-03
  1 41 242 1.47650894E+02 8.32142695E-03
  1 41 243 1.47601471E+02 8.32142695E-03
  1 42 241 1.48831116E+02 8.32142695E-03
  1 42 242 1.48932770E+02 8.32142695E-03
  1 42 243 1.48727478E+02 8.32142695E-03
  1 43 238 1.46617081E+02 8.32142695E-03
  1 43 239 1.47179520E+02 8.32142695E-03
  1 43 240 1.48579681E+02 8.32142695E-03
  1 43 241 1.49891159E+02 8.32142695E-03
  1 43 242 1.50507431E+02 8.32142695E-03
  1 43 243 1.50819382E+02 8.32142695E-03
  1 44 237 1.46784195E+02 8.32142695E-03
  1 44 238 1.47427475E+02 8.32142695E-03
  1 44 239 1.48689606E+02 8.32142695E-03
  1 44 240 1.50180878E+02 8.32142695E-03
  1 44 241 1.51670624E+02 8.32142695E-03
  1 44 242 1.52695312E+02 8.32142695E-03
  1 44 243 1.50879745E+02 8.32142695E-03
  1 44 244 1.52927475E+02 8.32142695E-03
  1 44 245 1.51514801E+02 8.32142695E-03
  1 44 246 1.50510757E+02 8.32142695E-03
  1 45 237 1.47156464E+02 8.99742364E-03
  1 45 238 1.47209045E+02 8.99742364E-03
  1 45 239 1.47694534E+02 8.32142695E-03
  1 45 240 1.50396133E+02 8.32142695E-03
  1 45 241 1.52248810E+02 8.32142695E-03
  1 45 242 1.53255005E+02 8.32142695E-03
  1 45 243 1.52927475E+02 8.32142695E-03
  1 45 244 1.52967911E+02 8.32142695E-03
  1 45 245 1.52267975E+02 8.32142695E-03
  1 45 246 1.50326630E+02 8.32142695E-03
  1 46 233 1.44839737E+02 8.99742364E-03
  1 46 234 1.45296387E+02 8.99742364E-03
  1 46 235 1.45772400E+02 8.99742364E-03
  1 46 236 1.46607681E+02 8.99742364E-03
  1 46 237 1.47223389E+02 8.99742364E-03
  1 46 238 1.47657593E+02 8.99742364E-03
  1 46 239 1.48097092E+02 8.99742364E-03
  1 46 240 1.48888336E+02 8.99742364E-03
  1 46 241 1.50177643E+02 8.99742364E-03
  1 46 242 1.52237503E+02 8.32142695E-03
  1 46 243 1.53347839E+02 8.32142695E-03
  1 46 244 1.52967911E+02 8.99742364E-03
  1 46 245 1.51380859E+02 8.99742364E-03
  1 46 246 1.50509598E+02 7.59782396E-03
  1 47 232 1.45152969E+02 7.55177677E-03
  1 47 233 1.45152969E+02 8.99742364E-03
  1 47 234 1.45472534E+02 8.99742364E-03
  1 47 235 1.45590881E+02 8.99742364E-03
  1 47 236 1.45964966E+02 8.99742364E-03
  1 47 237 1.46555359E+02 8.99742364E-03
  1 47 238 1.47883606E+02 8.99742364E-03
  1 47 239 1.48414352E+02 8.99742364E-03
  1 47 240 1.49078491E+02 8.99742364E-03
  1 47 241 1.50177643E+02 8.99742364E-03
  1 47 242 1.52237503E+02 8.99742364E-03
  1 47 243 1.52305252E+02 8.99742364E-03
  1 47 244 1.52014969E+02 8.99742364E-03
  1 47 245 1.51380859E+02 8.99742364E-03
  1 47 246 1.49064026E+02 7.59782396E-03
  1 48 229 1.46656570E+02 8.99742364E-03
  1 48 230 1.45525314E+02 8.99742364E-03
  1 48 231 1.44630981E+02 8.99742364E-03
  1 48 232 1.44534409E+02 8.99742364E-03
  1 48 233 1.45553314E+02 8.99742364E-03
  1 48 234 1.45791245E+02 8.99742364E-03
  1 48 235 1.45857071E+02 8.99742364E-03
  1 48 236 1.46357330E+02 8.99742364E-03
  1 48 237 1.46936920E+02 8.99742364E-03
  1 48 238 1.48345993E+02 8.99742364E-03
  1 48 239 1.48968918E+02 8.99742364E-03
  1 48 240 1.48968918E+02 8.99742364E-03
  1 48 241 1.49644241E+02 8.99742364E-03
  1 48 242 1.50291138E+02 8.99742364E-03
  1 48 243 1.50515854E+02 8.99742364E-03
  1 48 244 1.50408951E+02 8.99742364E-03
  1 48 245 1.49704498E+02 8.99742364E-03
  1 48 246 1.49064026E+02 7.59782396E-03
  1 49 229 1.46656570E+02 8.99742364E-03
  1 49 230 1.45600677E+02 8.99742364E-03
  1 49 231 1.44463516E+02 8.99742364E-03
  1 49 232 1.44276993E+02 8.99742364E-03
  1 49 233 1.45157959E+02 8.99742364E-03
  1 49 234 1.45118973E+02 8.99742364E-03
  1 49 235 1.45532928E+02 8.99742364E-03
  1 49 236 1.46229202E+02 8.99742364E-03
  1 49 237 1.46614914E+02 8.99742364E-03
  1 49 238 1.47205475E+02 8.99742364E-03
  1 49 239 1.47842743E+02 8.99742364E-03
  1 49 240 1.49161194E+02 8.99742364E-03
  1 49 241 1.49452835E+02 8.99742364E-03
  1 49 242 1.49202728E+02 8.99742364E-03
  1 49 243 1.49032028E+02 8.99742364E-03
  1 49 244 1.48900040E+02 8.99742364E-03
  1 49 245 1.48728745E+02 7.59782396E-03
  1 49 246 1.48728745E+02 7.55177677E-03
  1 50 229 1.48815063E+02 8.99742364E-03
  1 50 230 1.45600677E+02 8.99742364E-03
  1 50 231 1.43748322E+02 8.99742364E-03
  1 50 232 1.43394196E+02 8.99742364E-03
  1 50 233 1.44764603E+02 8.99742364E-03
  1 50 234 1.45092209E+02 8.99742364E-03
  1 50 235 1.43772278E+02 8.99742364E-03
  1 50 236 1.45731583E+02 8.99742364E-03
  1 50 237 1.46614914E+02 8.99742364E-03
  1 50 238 1.47205475E+02 8.99742364E-03
  1 50 239 1.47130157E+02 8.99742364E-03
  1 50 240 1.47977463E+02 8.99742364E-03
  1 50 241 1.48870575E+02 8.99742364E-03
  1 50 242 1.49202728E+02 8.99742364E-03
  1 50 243 1.47021759E+02 8.99742364E-03
  1 50 244 1.46783569E+02 8.99742364E-03
  1 50 245 1.46784210E+02 7.59782396E-03
  1 51 228 1.48636353E+02 8.99742364E-03
  1 51 229 1.48636353E+02 8.99742364E-03
  1 51 230 1.46564835E+02 8.99742364E-03
  1 51 231 1.44838379E+02 8.99742364E-03
  1 51 232 1.42755722E+02 8.99742364E-03
  1 51 233 1.43374710E+02 8.99742364E-03
  1 51 234 1.43539581E+02 8.99742364E-03
  1 51 235 1.43772278E+02 8.99742364E-03
  1 51 236 1.43741577E+02 8.99742364E-03
  1 51 237 1.46063202E+02 8.99742364E-03
  1 51 238 1.46523575E+02 8.99742364E-03
  1 51 239 1.47130157E+02 8.99742364E-03
  1 51 240 1.47085846E+02 8.99742364E-03
  1 51 241 1.47499405E+02 8.99742364E-03
  1 51 242 1.48471100E+02 8.99742364E-03
  1 51 243 1.47021759E+02 8.99742364E-03
  1 51 244 1.44911438E+02 7.59782396E-03
  1 51 245 1.45015930E+02 7.59782396E-03
  1 51 246 1.45322678E+02 7.59782396E-03
  1 52 228 1.47792542E+02 8.99742364E-03
  1 52 229 1.46283066E+02 8.99742364E-03
  1 52 230 1.44648788E+02 8.99742364E-03
  1 52 231 1.43428864E+02 8.99742364E-03
  1 52 232 1.42803741E+02 8.99742364E-03
  1 52 233 1.42638779E+02 8.99742364E-03
  1 52 234 1.42948730E+02 8.99742364E-03
  1 52 235 1.43741577E+02 8.99742364E-03
  1 52 236 1.43741577E+02 8.99742364E-03
  1 52 237 1.44625488E+02 8.99742364E-03
  1 52 238 1.45030731E+02 8.99742364E-03
  1 52 239 1.46404129E+02 8.99742364E-03
  1 52 240 1.47085846E+02 8.99742364E-03
  1 52 241 1.45370789E+02 7.59782396E-03
  1 52 242 1.46793488E+02 7.59782396E-03
  1 52 243 1.45730606E+02 7.59782396E-03
  1 52 244 1.44173904E+02 7.59782396E-03
  1 52 245 1.44381119E+02 7.59782396E-03
  1 52 246 1.44738983E+02 7.59782396E-03
  1 52 247 1.45638168E+02 7.59782396E-03
  1 52 248 1.45536179E+02 7.59782396E-03
  1 53 228 1.47187653E+02 8.99742364E-03
  1 53 229 1.46710739E+02 8.99742364E-03
  1 53 230 1.45713547E+02 8.99742364E-03
  1 53 231 1.44277191E+02 8.99742364E-03
  1 53 232 1.42803741E+02 8.99742364E-03
  1 53 233 1.42167618E+02 8.99742364E-03
  1 53 234 1.42226578E+02 8.99742364E-03
  1 53 235 1.42466934E+02 8.99742364E-03
  1 53 236 1.42838379E+02 8.22694309E-03
  1 53 237 1.43156235E+02 7.59782396E-03
  1 53 238 1.43735413E+02 7.59782396E-03
  1 53 239 1.44797806E+02 7.59782396E-03
  1 53 240 1.42480118E+02 7.59782396E-03
  1 53 241 1.42611313E+02 7.59782396E-03
  1 53 242 1.44860413E+02 7.59782396E-03
  1 53 243 1.44362442E+02 7.59782396E-03
  1 53 244 1.44173904E+02 7.59782396E-03
  1 53 245 1.43428024E+02 7.59782396E-03
  1 53 246 1.43702209E+02 7.59782396E-03
  1 53 247 1.45243744E+02 7.59782396E-03
  1 53 248 1.45536179E+02 7.59782396E-03
  1 54 228 1.47258896E+02 8.99742364E-03
  1 54 229 1.46757187E+02 8.99742364E-03
  1 54 230 1.46417618E+02 8.99742364E-03
  1 54 231 1.45869888E+02 8.99742364E-03
  1 54 232 1.42803741E+02 8.99742364E-03
  1 54 233 1.42444946E+02 8.99742364E-03
  1 54 234 1.41934647E+02 8.22694309E-03
  1 54 235 1.41709564E+02 8.22694309E-03
  1 54 236 1.41691116E+02 8.22694309E-03
  1 54 237 1.41752502E+02 8.22694309E-03
  1 54 238 1.42007782E+02 8.22694309E-03
  1 54 239 1.42645767E+02 7.59782396E-03
  1 54 240 1.42730438E+02 7.59782396E-03
  1 54 241 1.40419098E+02 7.59782396E-03
  1 54 242 1.42791580E+02 7.59782396E-03
  1 54 243 1.43118835E+02 7.59782396E-03
  1 54 244 1.43428024E+02 7.59782396E-03
  1 54 245 1.43117401E+02 7.59782396E-03
  1 54 246 1.44168503E+02 7.59782396E-03
  1 54 247 1.45113373E+02 7.59782396E-03
  1 54 248 1.45113373E+02 7.59782396E-03
  1 55 228 1.46735229E+02 8.99742364E-03
  1 55 229 1.46757187E+02 8.99742364E-03
  1 55 230 1.46412262E+02 8.99742364E-03
  1 55 231 1.46314941E+02 8.99742364E-03
  1 55 232 1.44055496E+02 8.99742364E-03
  1 55 233 1.44784531E+02 8.22694309E-03
  1 55 234 1.43072205E+02 8.22694309E-03
  1 55 235 1.41699951E+02 8.22694309E-03
  1 55 236 1.41468781E+02 8.22694309E-03
  1 55 237 1.41086090E+02 8.22694309E-03
  1 55 238 1.40933777E+02 8.22694309E-03
  1 55 239 1.40870575E+02 8.22694309E-03
  1 55 240 1.40542526E+02 8.22694309E-03
  1 55 241 1.40419098E+02 7.59782396E-03
  1 55 242 1.41013504E+02 7.59782396E-03
  1 55 243 1.42244675E+02 7.59782396E-03
  1 55 244 1.42785080E+02 7.59782396E-03
  1 55 245 1.43117401E+02 7.59782396E-03
  1 55 246 1.43548203E+02 7.59782396E-03
  1 55 247 1.43882111E+02 7.59782396E-03
  1 56 227 1.46452530E+02 8.99742364E-03
  1 56 228 1.46458817E+02 8.99742364E-03
  1 56 229 1.47218872E+02 8.99742364E-03
  1 56 230 1.46749680E+02 8.99742364E-03
  1 56 231 1.46323120E+02 8.99742364E-03
  1 56 232 1.45694870E+02 8.99742364E-03
  1 56 233 1.44784531E+02 8.22694309E-03
  1 56 234 1.44544464E+02 8.22694309E-03
  1 56 235 1.42174301E+02 8.22694309E-03
  1 56 236 1.41616516E+02 8.22694309E-03
  1 56 237 1.41302429E+02 8.22694309E-03
  1 56 238 1.40741364E+02 8.22694309E-03
  1 56 239 1.39719986E+02 8.22694309E-03
  1 56 240 1.39456894E+02 8.22694309E-03
  1 56 241 1.39568954E+02 8.22694309E-03
  1 56 242 1.39974991E+02 7.59782396E-03
  1 56 243 1.40415421E+02 7.59782396E-03
  1 56 244 1.41099579E+02 7.59782396E-03
  1 56 245 1.42449509E+02 7.59782396E-03
  1 56 246 1.42812943E+02 7.59782396E-03
  1 56 247 1.42899551E+02 7.59782396E-03
  1 57 223 1.44598846E+02 8.99742364E-03
  1 57 224 1.45584213E+02 8.99742364E-03
  1 57 225 1.46091187E+02 8.99742364E-03
  1 57 226 1.47814362E+02 7.55177677E-03
  1 57 227 1.47351181E+02 8.99742364E-03
  1 57 228 1.47471100E+02 8.99742364E-03
  1 57 229 1.47218872E+02 8.99742364E-03
  1 57 230 1.48004471E+02 8.99742364E-03
  1 57 231 1.46970825E+02 8.99742364E-03
  1 57 232 1.46212372E+02 8.99742364E-03
  1 57 233 1.45902725E+02 8.22694309E-03
  1 57 234 1.42478378E+02 8.22694309E-03
  1 57 235 1.41868515E+02 8.22694309E-03
  1 57 236 1.41274704E+02 8.22694309E-03
  1 57 237 1.40741364E+02 8.22694309E-03
  1 57 238 1.40741364E+02 8.22694309E-03
  1 57 239 1.39231781E+02 8.22694309E-03
  1 57 240 1.38764877E+02 8.22694309E-03
  1 57 241 1.39568954E+02 8.22694309E-03
  1 57 242 1.39974991E+02 8.22694309E-03
  1 57 243 1.40118500E+02 7.59782396E-03
  1 57 244 1.40631210E+02 7.59782396E-03
  1 57 245 1.41328644E+02 7.59782396E-03
  1 57 246 1.42812943E+02 7.59782396E-03
  1 57 247 1.42270416E+02 7.59782396E-03
  1 58 223 1.42961121E+02 8.99742364E-03
  1 58 224 1.45253250E+02 8.99742364E-03
  1 58 225 1.46391281E+02 8.99742364E-03
  1 58 226 1.47814362E+02 8.99742364E-03
  1 58 227 1.48555725E+02 8.99742364E-03
  1 58 228 1.48756424E+02 8.99742364E-03
  1 58 229 1.48814499E+02 8.99742364E-03
  1 58 230 1.48004471E+02 8.99742364E-03
  1 58 231 1.47311630E+02 8.99742364E-03
  1 58 232 1.46434723E+02 8.99742364E-03
  1 58 233 1.46005173E+02 8.22694309E-03
  1 58 234 1.44601517E+02 8.22694309E-03
  1 58 235 1.43000977E+02 8.22694309E-03
  1 58 236 1.41843307E+02 8.22694309E-03
  1 58 237 1.40252563E+02 8.22694309E-03
  1 58 238 1.39231781E+02 8.22694309E-03
  1 58 239 1.38198410E+02 8.22694309E-03
  1 58 240 1.38303345E+02 8.22694309E-03
  1 58 241 1.39642990E+02 8.22694309E-03
  1 58 242 1.40118500E+02 8.22694309E-03
  1 58 243 1.40251846E+02 8.22694309E-03
  1 58 244 1.40769547E+02 7.59782396E-03
  1 58 245 1.40769547E+02 7.59782396E-03
  1 58 246 1.41910294E+02 7.59782396E-03
  1 58 247 1.42261795E+02 7.59782396E-03
  1 59 215 1.37101257E+02 7.55177677E-03
  1 59 216 1.37321716E+02 7.59782396E-03
  1 59 217 1.37902466E+02 7.59782396E-03
  1 59 223 1.42803070E+02 8.99742364E-03
  1 59 224 1.43837692E+02 8.99742364E-03
  1 59 225 1.44968399E+02 8.99742364E-03
  1 59 226 1.47871658E+02 8.99742364E-03
  1 59 227 1.48757462E+02 8.99742364E-03
  1 59 228 1.49081787E+02 8.99742364E-03
  1 59 229 1.48891785E+02 8.99742364E-03
  1 59 230 1.48533325E+02 8.99742364E-03
  1 59 231 1.47964157E+02 8.99742364E-03
  1 59 232 1.46701324E+02 8.99742364E-03
  1 59 233 1.45997009E+02 8.22694309E-03
  1 59 234 1.44818359E+02 8.22694309E-03
  1 59 235 1.43000977E+02 8.22694309E-03
  1 59 236 1.41370819E+02 8.22694309E-03
  1 59 237 1.39426971E+02 8.22694309E-03
  1 59 238 1.38446198E+02 8.22694309E-03
  1 59 239 1.38198410E+02 8.22694309E-03
  1 59 240 1.37977066E+02 8.22694309E-03
  1 59 241 1.38769745E+02 8.22694309E-03
  1 59 242 1.39267975E+02 8.22694309E-03
  1 59 243 1.40251846E+02 8.22694309E-03
  1 59 244 1.39488922E+02 8.22694309E-03
  1 59 245 1.39537033E+02 7.59782396E-03
  1 59 246 1.41362579E+02 7.59782396E-03
  1 59 247 1.41160004E+02 7.59782396E-03
  1 59 248 1.38806854E+02 7.59782396E-03
  1 59 249 1.39072357E+02 7.59782396E-03
  1 59 250 1.40210510E+02 7.59782396E-03
  1 60 215 1.36635391E+02 7.55177677E-03
  1 60 216 1.36724030E+02 7.59782396E-03
  1 60 217 1.37306183E+02 7.59782396E-03
  1 60 218 1.38447937E+02 7.59782396E-03
  1 60 219 1.39293625E+02 7.59782396E-03
  1 60 220 1.40309464E+02 8.99742364E-03
  1 60 221 1.41914612E+02 8.99742364E-03
  1 60 222 1.42803070E+02 8.99742364E-03
  1 60 223 1.43393982E+02 8.99742364E-03
  1 60 224 1.44503555E+02 8.99742364E-03
  1 60 225 1.45991028E+02 8.99742364E-03
  1 60 226 1.47363388E+02 8.99742364E-03
  1 60 227 1.49076004E+02 8.99742364E-03
  1 60 228 1.49076004E+02 8.99742364E-03
  1 60 229 1.48590851E+02 8.99742364E-03
  1 60 230 1.47321335E+02 8.99742364E-03
  1 60 231 1.46498138E+02 8.99742364E-03
  1 60 232 1.46272583E+02 8.99742364E-03
  1 60 233 1.45655365E+02 8.22694309E-03
  1 60 234 1.44746460E+02 8.22694309E-03
  1 60 235 1.43168961E+02 8.22694309E-03
  1 60 236 1.41370819E+02 8.22694309E-03
  1 60 237 1.39687485E+02 8.22694309E-03
  1 60 238 1.38594788E+02 8.22694309E-03
  1 60 239 1.37800659E+02 8.22694309E-03
  1 60 240 1.37977066E+02 8.22694309E-03
  1 60 241 1.38444122E+02 8.22694309E-03
  1 60 242 1.38955444E+02 8.22694309E-03
  1 60 243 1.39260635E+02 8.22694309E-03
  1 60 244 1.39351578E+02 8.22694309E-03
  1 60 245 1.38319702E+02 8.22694309E-03
  1 60 246 1.39351715E+02 7.59782396E-03
  1 60 247 1.39252625E+02 7.59782396E-03
  1 60 248 1.38806854E+02 7.59782396E-03
  1 60 249 1.38284454E+02 7.59782396E-03
  1 60 250 1.38951645E+02 7.59782396E-03
  1 61 212 1.33477493E+02 7.59782396E-03
  1 61 215 1.36037781E+02 7.59782396E-03
  1 61 216 1.35921371E+02 7.59782396E-03
  1 61 217 1.37030624E+02 7.59782396E-03
  1 61 218 1.38243729E+02 7.59782396E-03
  1 61 219 1.39293625E+02 8.99742364E-03
  1 61 220 1.40618561E+02 8.99742364E-03
  1 61 221 1.41171219E+02 8.99742364E-03
  1 61 222 1.42532990E+02 8.99742364E-03
  1 61 223 1.43393982E+02 8.99742364E-03
  1 61 224 1.43589828E+02 8.99742364E-03
  1 61 225 1.45014648E+02 8.99742364E-03
  1 61 226 1.46585373E+02 8.99742364E-03
  1 61 227 1.48506516E+02 8.99742364E-03
  1 61 228 1.48157150E+02 8.99742364E-03
  1 61 229 1.46496063E+02 8.99742364E-03
  1 61 230 1.45494965E+02 8.99742364E-03
  1 61 231 1.45020920E+02 8.99742364E-03
  1 61 232 1.44772919E+02 8.99742364E-03
  1 61 233 1.44510818E+02 8.22694309E-03
  1 61 234 1.44510818E+02 8.22694309E-03
  1 61 235 1.42738083E+02 8.22694309E-03
  1 61 236 1.41370819E+02 8.22694309E-03
  1 61 237 1.38947037E+02 8.22694309E-03
  1 61 238 1.38128799E+02 8.22694309E-03
  1 61 239 1.37692337E+02 8.22694309E-03
  1 61 240 1.37499939E+02 8.22694309E-03
  1 61 241 1.38038193E+02 8.22694309E-03
  1 61 242 1.38495361E+02 8.22694309E-03
  1 61 243 1.38667068E+02 8.22694309E-03
  1 61 244 1.38508499E+02 8.22694309E-03
  1 61 245 1.38319702E+02 8.22694309E-03
  1 61 246 1.37675247E+02 8.22694309E-03
  1 61 247 1.37616486E+02 7.59782396E-03
  1 61 248 1.37827667E+02 7.59782396E-03
  1 61 249 1.37784363E+02 7.59782396E-03
  1 61 250 1.38951645E+02 7.59782396E-03
  1 62 197 1.25449997E+02 7.59782396E-03
  1 62 198 1.26981812E+02 7.59782396E-03
  1 62 211 1.33339645E+02 7.55177677E-03
  1 62 212 1.33339645E+02 7.59782396E-03
  1 62 213 1.33960907E+02 7.59782396E-03
  1 62 214 1.34569427E+02 7.59782396E-03
  1 62 215 1.35329468E+02 7.59782396E-03
  1 62 216 1.35921371E+02 7.59782396E-03
  1 62 217 1.35970993E+02 7.59782396E-03
  1 62 218 1.38175674E+02 7.59782396E-03
  1 62 219 1.39497849E+02 8.99742364E-03
  1 62 220 1.40618561E+02 8.99742364E-03
  1 62 221 1.40952530E+02 8.99742364E-03
  1 62 222 1.41477524E+02 8.99742364E-03
  1 62 223 1.41816650E+02 8.99742364E-03
  1 62 224 1.43589828E+02 8.99742364E-03
  1 62 225 1.43884262E+02 8.99742364E-03
  1 62 226 1.45394516E+02 8.99742364E-03
  1 62 227 1.48160553E+02 8.99742364E-03
  1 62 228 1.48871246E+02 8.99742364E-03
  1 62 229 1.46980103E+02 8.99742364E-03
  1 62 230 1.44927490E+02 8.99742364E-03
  1 62 231 1.44167465E+02 8.99742364E-03
  1 62 232 1.44772919E+02 8.99742364E-03
  1 62 233 1.43212753E+02 8.22694309E-03
  1 62 234 1.43037140E+02 8.22694309E-03
  1 62 235 1.42195129E+02 8.22694309E-03
  1 62 236 1.38947037E+02 8.22694309E-03
  1 62 237 1.37870758E+02 8.22694309E-03
  1 62 238 1.37428787E+02 8.22694309E-03
  1 62 239 1.37299377E+02 8.22694309E-03
  1 62 240 1.37361267E+02 8.22694309E-03
  1 62 241 1.37644562E+02 8.22694309E-03
  1 62 242 1.37812088E+02 8.22694309E-03
  1 62 243 1.37915894E+02 8.22694309E-03
  1 62 244 1.37773178E+02 8.22694309E-03
  1 62 245 1.37494904E+02 8.22694309E-03
  1 62 246 1.37090591E+02 8.22694309E-03
  1 62 247 1.36878754E+02 7.59782396E-03
  1 62 248 1.37363861E+02 7.59782396E-03
  1 62 249 1.37784363E+02 7.59782396E-03
  1 62 250 1.38327530E+02 6.45815068E-04
  1 63 186 1.18931488E+02 7.35789302E-03
  1 63 187 1.19602608E+02 7.35789302E-03
  1 63 188 1.21370514E+02 7.59782396E-03
  1 63 197 1.25174530E+02 7.59782396E-03
  1 63 198 1.26608955E+02 7.59782396E-03
  1 63 199 1.28647293E+02 7.59782396E-03
  1 63 200 1.29082458E+02 7.59782396E-03
  1 63 201 1.29199173E+02 7.59782396E-03
  1 63 202 1.29849823E+02 7.59782396E-03
  1 63 211 1.33014862E+02 7.59782396E-03
  1 63 212 1.33189514E+02 7.59782396E-03
  1 63 213 1.33986908E+02 7.59782396E-03
  1 63 214 1.34595596E+02 7.59782396E-03
  1 63 215 1.35330597E+02 7.59782396E-03
  1 63 216 1.35970993E+02 7.59782396E-03
  1 63 217 1.36842819E+02 7.59782396E-03
  1 63 218 1.36842819E+02 7.59782396E-03
  1 63 219 1.38022232E+02 8.99742364E-03
  1 63 220 1.40636826E+02 8.99742364E-03
  1 63 221 1.40952530E+02 8.99742364E-03
  1 63 222 1.41134521E+02 8.99742364E-03
  1 63 223 1.41250488E+02 8.99742364E-03
  1 63 224 1.41653809E+02 8.99742364E-03
  1 63 225 1.42508835E+02 8.99742364E-03
  1 63 226 1.43748520E+02 8.99742364E-03
  1 63 227 1.46756134E+02 8.99742364E-03
  1 63 228 1.47473083E+02 8.99742364E-03
  1 63 229 1.46980103E+02 8.99742364E-03
  1 63 230 1.44527069E+02 8.99742364E-03
  1 63 231 1.43800735E+02 8.99742364E-03
  1 63 232 1.43507233E+02 8.99742364E-03
  1 63 233 1.43212753E+02 8.22694309E-03
  1 63 234 1.41801636E+02 8.22694309E-03
  1 63 235 1.41372345E+02 8.22694309E-03
  1 63 236 1.40360275E+02 8.22694309E-03
  1 63 237 1.37870758E+02 8.22694309E-03
  1 63 238 1.37191696E+02 8.22694309E-03
  1 63 239 1.37089462E+02 8.22694309E-03
  1 63 240 1.37097519E+02 8.22694309E-03
  1 63 241 1.37186432E+02 8.22694309E-03
  1 63 242 1.37345627E+02 8.22694309E-03
  1 63 243 1.37236847E+02 8.22694309E-03
  1 63 244 1.36916016E+02 8.22694309E-03
  1 63 245 1.36532867E+02 8.22694309E-03
  1 63 246 1.36460266E+02 8.22694309E-03
  1 63 247 1.36460266E+02 7.59782396E-03
  1 63 248 1.36527817E+02 7.59782396E-03
  1 63 249 1.36672256E+02 7.59782396E-03
  1 63 250 1.37071411E+02 6.45815068E-04
  1 63 251 1.37120224E+02 6.45815068E-04
  1 63 252 1.37186569E+02 6.45815068E-04
  1 63 253 1.37017807E+02 6.45815068E-04
  1 64 179 1.16013962E+02 7.55177677E-03
  1 64 186 1.19677628E+02 7.35789302E-03
  1 64 187 1.20555412E+02 7.35789302E-03
  1 64 188 1.21370514E+02 7.59782396E-03
  1 64 189 1.22257278E+02 7.59782396E-03
  1 64 190 1.23177162E+02 7.59782396E-03
  1 64 191 1.25048508E+02 7.59782396E-03
  1 64 192 1.27161476E+02 7.59782396E-03
  1 64 193 1.26730865E+02 7.59782396E-03
  1 64 197 1.25535217E+02 7.59782396E-03
  1 64 198 1.25771339E+02 7.59782396E-03
  1 64 199 1.28432938E+02 7.59782396E-03
  1 64 200 1.29082458E+02 7.59782396E-03
  1 64 201 1.28565643E+02 7.59782396E-03
  1 64 202 1.29299866E+02 7.59782396E-03
  1 64 203 1.30228256E+02 7.59782396E-03
  1 64 204 1.30906235E+02 7.59782396E-03
  1 64 205 1.30814880E+02 7.59782396E-03
  1 64 206 1.31002884E+02 7.59782396E-03
  1 64 207 1.31195114E+02 7.59782396E-03
  1 64 211 1.32690125E+02 7.59782396E-03
  1 64 212 1.33019928E+02 7.59782396E-03
  1 64 213 1.33283676E+02 7.59782396E-03
  1 64 214 1.33600571E+02 7.59782396E-03
  1 64 215 1.34796783E+02 7.59782396E-03
  1 64 216 1.35404785E+02 7.59782396E-03
  1 64 217 1.36172485E+02 7.59782396E-03
  1 64 218 1.37547592E+02 7.59782396E-03
  1 64 219 1.38881577E+02 8.99742364E-03
  1 64 220 1.39949768E+02 8.99742364E-03
  1 64 221 1.41054855E+02 8.99742364E-03
  1 64 222 1.41062973E+02 8.99742364E-03
  1 64 223 1.40864090E+02 8.99742364E-03
  1 64 224 1.40864090E+02 8.99742364E-03
  1 64 225 1.41205612E+02 8.99742364E-03
  1 64 226 1.42300018E+02 8.99742364E-03
  1 64 227 1.44931046E+02 8.99742364E-03
  1 64 228 1.45550079E+02 8.99742364E-03
  1 64 229 1.45262039E+02 8.99742364E-03
  1 64 230 1.44527069E+02 8.99742364E-03
  1 64 231 1.43800735E+02 8.99742364E-03
  1 64 232 1.43010635E+02 8.99742364E-03
  1 64 233 1.41971741E+02 8.22694309E-03
  1 64 234 1.41801636E+02 8.22694309E-03
  1 64 235 1.40010254E+02 8.22694309E-03
  1 64 236 1.40101196E+02 8.22694309E-03
  1 64 237 1.38359085E+02 8.22694309E-03
  1 64 238 1.37177429E+02 8.22694309E-03
  1 64 239 1.36702393E+02 8.22694309E-03
  1 64 240 1.36781815E+02 8.22694309E-03
  1 64 241 1.37186432E+02 8.22694309E-03
  1 64 242 1.36984177E+02 8.22694309E-03
  1 64 243 1.36944397E+02 8.22694309E-03
  1 64 244 1.36766159E+02 8.22694309E-03
  1 64 245 1.36532867E+02 8.22694309E-03
  1 64 246 1.36199966E+02 8.22694309E-03
  1 64 247 1.36000946E+02 8.22694309E-03
  1 64 248 1.35819275E+02 7.59782396E-03
  1 64 249 1.35762726E+02 6.45815068E-04
  1 64 250 1.35405838E+02 6.45815068E-04
  1 64 251 1.35319214E+02 6.45815068E-04
  1 64 252 1.35251907E+02 6.45815068E-04
  1 64 253 1.35251907E+02 6.45815068E-04
  1 65 179 1.16066269E+02 7.35789302E-03
  1 65 180 1.16744286E+02 7.35789302E-03
  1 65 181 1.16758415E+02 7.35789302E-03
  1 65 182 1.16904655E+02 7.35789302E-03
  1 65 183 1.16622757E+02 7.55177677E-03
  1 65 186 1.18334045E+02 7.35789302E-03
  1 65 187 1.21467186E+02 7.35789302E-03
  1 65 188 1.22439110E+02 7.59782396E-03
  1 65 189 1.23382431E+02 7.59782396E-03
  1 65 190 1.24227165E+02 7.59782396E-03
  1 65 191 1.25493965E+02 7.59782396E-03
  1 65 192 1.26819786E+02 7.59782396E-03
  1 65 193 1.26561043E+02 7.59782396E-03
  1 65 194 1.26018547E+02 7.59782396E-03
  1 65 195 1.25638847E+02 7.59782396E-03
  1 65 196 1.25535217E+02 7.59782396E-03
  1 65 197 1.25733711E+02 7.59782396E-03
  1 65 198 1.26796448E+02 7.59782396E-03
  1 65 199 1.27656937E+02 7.59782396E-03
  1 65 200 1.28565643E+02 7.59782396E-03
  1 65 201 1.29140320E+02 7.59782396E-03
  1 65 202 1.29140320E+02 7.59782396E-03
  1 65 203 1.29726776E+02 7.59782396E-03
  1 65 204 1.30029800E+02 7.59782396E-03
  1 65 205 1.30814880E+02 7.59782396E-03
  1 65 206 1.31078598E+02 7.59782396E-03
  1 65 207 1.31272949E+02 7.59782396E-03
  1 65 208 1.31291260E+02 7.59782396E-03
  1 65 209 1.31380661E+02 7.59782396E-03
  1 65 210 1.31518402E+02 7.59782396E-03
  1 65 211 1.32400497E+02 7.59782396E-03
  1 65 212 1.32824738E+02 7.59782396E-03
  1 65 213 1.33283676E+02 7.59782396E-03
  1 65 214 1.33446884E+02 7.59782396E-03
  1 65 215 1.33916641E+02 7.59782396E-03
  1 65 216 1.34488235E+02 7.59782396E-03
  1 65 217 1.36172485E+02 7.59782396E-03
  1 65 218 1.36381287E+02 7.59782396E-03
  1 65 219 1.37539062E+02 7.59782396E-03
  1 65 220 1.38328964E+02 8.99742364E-03
  1 65 221 1.39436783E+02 8.99742364E-03
  1 65 222 1.40586929E+02 8.99742364E-03
  1 65 223 1.40231049E+02 8.99742364E-03
  1 65 224 1.40158554E+02 8.99742364E-03
  1 65 225 1.40821686E+02 8.99742364E-03
  1 65 226 1.42306015E+02 8.99742364E-03
  1 65 227 1.43179138E+02 8.99742364E-03
  1 65 228 1.43087784E+02 8.99742364E-03
  1 65 229 1.42597351E+02 8.99742364E-03
  1 65 230 1.39979874E+02 8.99742364E-03
  1 65 231 1.42073410E+02 8.99742364E-03
  1 65 232 1.41461609E+02 8.99742364E-03
  1 65 233 1.40769196E+02 8.22694309E-03
  1 65 234 1.40478302E+02 8.22694309E-03
  1 65 235 1.38537125E+02 8.22694309E-03
  1 65 236 1.39106735E+02 8.22694309E-03
  1 65 237 1.37829437E+02 8.22694309E-03
  1 65 238 1.37177429E+02 8.22694309E-03
  1 65 239 1.36495300E+02 8.22694309E-03
  1 65 240 1.36305435E+02 8.22694309E-03
  1 65 241 1.36890503E+02 8.22694309E-03
  1 65 242 1.36984177E+02 8.22694309E-03
  1 65 243 1.36542831E+02 8.22694309E-03
  1 65 244 1.36373230E+02 8.22694309E-03
  1 65 245 1.36507187E+02 8.22694309E-03
  1 65 246 1.36199966E+02 8.22694309E-03
  1 65 247 1.35611481E+02 8.22694309E-03
  1 65 248 1.35334122E+02 6.45815068E-04
  1 65 249 1.35145874E+02 6.45815068E-04
  1 65 250 1.35613861E+02 6.45815068E-04
  1 65 251 1.34974396E+02 6.45815068E-04
  1 65 252 1.35016907E+02 6.45815068E-04
  1 66 178 1.14696533E+02 7.55177677E-03
  1 66 179 1.14696533E+02 7.35789302E-03
  1 66 180 1.16126686E+02 7.35789302E-03
  1 66 181 1.16400581E+02 7.35789302E-03
  1 66 182 1.15989838E+02 7.35789302E-03
  1 66 183 1.15573715E+02 7.35789302E-03
  1 66 184 1.16585320E+02 7.35789302E-03
  1 66 185 1.17129860E+02 7.35789302E-03
  1 66 186 1.19109390E+02 7.35789302E-03
  1 66 187 1.20456314E+02 7.59782396E-03
  1 66 188 1.21239906E+02 7.59782396E-03
  1 66 189 1.21926025E+02 7.59782396E-03
  1 66 190 1.22791199E+02 7.59782396E-03
  1 66 191 1.24203690E+02 7.59782396E-03
  1 66 192 1.25762962E+02 7.59782396E-03
  1 66 193 1.26675827E+02 7.59782396E-03
  1 66 194 1.26035271E+02 7.59782396E-03
  1 66 195 1.26126602E+02 7.59782396E-03
  1 66 196 1.26106606E+02 7.59782396E-03
  1 66 197 1.25733711E+02 7.59782396E-03
  1 66 198 1.25611992E+02 7.59782396E-03
  1 66 199 1.25983528E+02 7.59782396E-03
  1 66 200 1.28080002E+02 7.59782396E-03
  1 66 201 1.29140320E+02 7.59782396E-03
  1 66 202 1.29836273E+02 7.59782396E-03
  1 66 203 1.30134811E+02 7.59782396E-03
  1 66 204 1.30528961E+02 7.59782396E-03
  1 66 205 1.30816956E+02 7.59782396E-03
  1 66 206 1.31441620E+02 7.59782396E-03
  1 66 207 1.31387299E+02 7.59782396E-03
  1 66 208 1.31310547E+02 7.59782396E-03
  1 66 209 1.31379395E+02 7.59782396E-03
  1 66 210 1.31518402E+02 7.59782396E-03
  1 66 211 1.31738297E+02 7.59782396E-03
  1 66 212 1.32824738E+02 7.59782396E-03
  1 66 213 1.33124420E+02 7.59782396E-03
  1 66 214 1.33446884E+02 7.59782396E-03
  1 66 215 1.33784546E+02 7.59782396E-03
  1 66 216 1.33907394E+02 7.59782396E-03
  1 66 217 1.34887711E+02 7.59782396E-03
  1 66 218 1.36381287E+02 7.59782396E-03
  1 66 219 1.35881088E+02 7.59782396E-03
  1 66 220 1.36394897E+02 8.99742364E-03
  1 66 221 1.37091965E+02 8.99742364E-03
  1 66 222 1.40495041E+02 8.99742364E-03
  1 66 223 1.38821152E+02 8.99742364E-03
  1 66 224 1.39307480E+02 8.99742364E-03
  1 66 225 1.39568253E+02 8.99742364E-03
  1 66 226 1.40248169E+02 8.99742364E-03
  1 66 227 1.40803940E+02 8.99742364E-03
  1 66 228 1.41067734E+02 8.99742364E-03
  1 66 229 1.40962997E+02 8.99742364E-03
  1 66 230 1.40534912E+02 8.99742364E-03
  1 66 231 1.39873032E+02 8.99742364E-03
  1 66 232 1.39656067E+02 8.22694309E-03
  1 66 233 1.39423050E+02 8.22694309E-03
  1 66 234 1.39171341E+02 8.22694309E-03
  1 66 235 1.37584381E+02 8.22694309E-03
  1 66 236 1.37343964E+02 8.22694309E-03
  1 66 237 1.37343964E+02 8.22694309E-03
  1 66 238 1.36921295E+02 8.22694309E-03
  1 66 239 1.36495300E+02 8.22694309E-03
  1 66 240 1.35915527E+02 8.22694309E-03
  1 66 241 1.36319504E+02 8.22694309E-03
  1 66 242 1.36579071E+02 8.22694309E-03
  1 66 243 1.36542831E+02 6.45815068E-04
  1 66 244 1.35914215E+02 6.45815068E-04
  1 66 245 1.36191101E+02 6.45815068E-04
  1 66 246 1.36065430E+02 6.45815068E-04
  1 66 247 1.35881973E+02 6.45815068E-04
  1 66 248 1.35045883E+02 6.45815068E-04
  1 66 249 1.34952774E+02 6.45815068E-04
  1 66 250 1.35018173E+02 6.45815068E-04
  1 66 251 1.34974396E+02 6.45815068E-04
  1 66 252 1.34956970E+02 6.45815068E-04
  1 67 178 1.14175415E+02 7.35789302E-03
  1 67 179 1.15527596E+02 7.35789302E-03
  1 67 180 1.15814156E+02 7.35789302E-03
  1 67 181 1.15551193E+02 7.35789302E-03
  1 67 182 1.15022072E+02 7.35789302E-03
  1 67 183 1.15176582E+02 7.35789302E-03
  1 67 184 1.17830772E+02 7.35789302E-03
  1 67 185 1.17830772E+02 7.35789302E-03
  1 67 186 1.18786575E+02 7.35789302E-03
  1 67 187 1.18863457E+02 7.59782396E-03
  1 67 188 1.19043854E+02 7.59782396E-03
  1 67 189 1.21926025E+02 7.59782396E-03
  1 67 190 1.21041161E+02 7.59782396E-03
  1 67 191 1.21928001E+02 7.59782396E-03
  1 67 192 1.23225739E+02 7.59782396E-03
  1 67 193 1.24348564E+02 7.59782396E-03
  1 67 194 1.24657928E+02 7.59782396E-03
  1 67 195 1.24709641E+02 7.59782396E-03
  1 67 196 1.25532372E+02 7.59782396E-03
  1 67 197 1.25768066E+02 7.59782396E-03
  1 67 198 1.25755333E+02 7.59782396E-03
  1 67 199 1.25910637E+02 7.59782396E-03
  1 67 200 1.26733093E+02 7.59782396E-03
  1 67 201 1.28066925E+02 7.59782396E-03
  1 67 202 1.29836273E+02 7.59782396E-03
  1 67 203 1.30331985E+02 7.59782396E-03
  1 67 204 1.30720337E+02 7.59782396E-03
  1 67 205 1.31007019E+02 7.59782396E-03
  1 67 206 1.31275375E+02 7.59782396E-03
  1 67 207 1.31743469E+02 7.59782396E-03