# File generated by Flopy version 3.9.5 on 03/16/2026 at 18:20:30.
BEGIN options
END options

BEGIN dimensions
  NPER  1
END dimensions

BEGIN perioddata
       1.00000000  1       1.00000000
END perioddata

